<?xml version="1.0" encoding="UTF-8"?>

<!-- generated on 2024-03-13 15:38:29 by Eclipse SUMO sumo Version 1.19.0
-->

<configuration xmlns:xsi="http://www.w3.org/2001/XMLSchema-instance" xsi:noNamespaceSchemaLocation="http://sumo.dlr.de/xsd/sumoConfiguration.xsd">

    <input>
        <route-files value="../route_configs/grid_network_0_routes_random.rou.xml"/>
    </input>

</configuration>