<?xml version="1.0" encoding="UTF-8"?>

<!-- generated on 2024-03-13 15:38:29 by Eclipse SUMO netedit Version 1.19.0
-->

<routes xmlns:xsi="http://www.w3.org/2001/XMLSchema-instance" xsi:noNamespaceSchemaLocation="http://sumo.dlr.de/xsd/routes_file.xsd">
    <!-- Routes -->
    <route id="r_0" edges="A0B0 B0B1 B1C1 C1C2 C2D2 D2D3 D3E3 E3E4 E4D4 D4D3 D3C3 C3C2 C2B2 B2B1 B1A1 A1A0 A0B0"/>
    <!-- Vehicles, persons and containers (sorted by depart) -->
    <flow id="f_0" begin="0.00" route="r_0" end="3600.00" vehsPerHour="1800"/>
</routes>
